19
E = -815124.15603 kJ/mol
  C      2.560232    1.111533    0.092639
  H      2.482669    1.568492    1.079481
  H      2.358916    1.893460   -0.641097
  H      3.560324    0.716443   -0.059378
  C      1.540568    0.008351   -0.055460
  O      1.858517   -1.119019   -0.396996
  C      0.104203    0.385078    0.236903
  H      0.062205    0.741981    1.272436
  H     -0.136684    1.255571   -0.380144
  C     -0.882399   -0.749504    0.020345
  H     -0.549877   -1.614107    0.596352
  H     -0.852207   -1.054905   -1.028196
  C     -2.311273   -0.380541    0.410132
  H     -2.336038   -0.093262    1.465097
  H     -2.939170   -1.268960    0.318073
  C     -2.902585    0.738916   -0.440287
  H     -2.852312    0.483412   -1.499994
  H     -3.947921    0.914642   -0.188179
  H     -2.370018    1.678893   -0.297643
