19
E = -815126.12474 kJ/mol
  C     -2.897846   -0.731164    0.038917
  H     -2.902389   -1.413642   -0.811316
  H     -3.770563   -0.085704    0.005476
  H     -2.927179   -1.342103    0.942339
  C     -1.638666    0.101068    0.035434
  O     -1.672824    1.319675    0.087112
  C     -0.333952   -0.662306   -0.031068
  H     -0.337233   -1.403323    0.775401
  H     -0.341713   -1.245023   -0.958819
  C      0.901665    0.216322    0.042590
  H      0.879409    0.792146    0.970475
  H      0.871298    0.948218   -0.767177
  C      2.191057   -0.590953   -0.035251
  H      2.203827   -1.163964   -0.966479
  H      2.211205   -1.321805    0.777846
  C      3.428550    0.294591    0.039646
  H      3.444668    0.856046    0.974323
  H      4.345632   -0.290975   -0.016880
  H      3.437489    1.014277   -0.779526
