14
E = -556884.29225 kJ/mol
  C      2.007524   -0.596386    0.128404
  H      2.799676   -1.034168   -0.463143
  H      1.952535   -0.869719    1.175042
  C      1.128779    0.259729   -0.399949
  H      1.203171    0.512366   -1.454571
  C     -0.004045    0.886410    0.359897
  H      0.058189    1.974312    0.291312
  H      0.077100    0.620300    1.416842
  N     -1.337848    0.490758   -0.097697
  H     -1.458710    0.778373   -1.062475
  C     -1.572682   -0.944079    0.019692
  H     -2.564974   -1.175526   -0.363022
  H     -1.548917   -1.214781    1.075928
  H     -0.837348   -1.566068   -0.502682
