14
E = -556884.00780 kJ/mol
  C     -1.637752   -0.855754   -0.207791
  H     -2.599268   -1.303330    0.000109
  H     -0.946730   -1.383184   -0.850747
  C     -1.309846    0.330335    0.308244
  H     -2.016515    0.850563    0.946814
  C     -0.006466    1.037497    0.064561
  H      0.354122    1.440840    1.024592
  H     -0.194884    1.900036   -0.580398
  N      0.987048    0.188729   -0.575149
  H      1.674302    0.770919   -1.035562
  C      1.658427   -0.688409    0.377329
  H      2.433035   -1.257737   -0.133159
  H      0.936636   -1.391376    0.789560
  H      2.114584   -0.143972    1.214977
