14
E = -556881.65106 kJ/mol
  C      2.290030   -0.179034   -0.258024
  H      2.997712   -0.982719   -0.406871
  H      2.607996    0.823584   -0.517285
  C      1.067632   -0.402292    0.233897
  H      0.779893   -1.417105    0.487399
  C      0.048656    0.681841    0.430909
  H      0.506413    1.645478    0.198438
  H     -0.268037    0.717368    1.476783
  N     -1.164956    0.540313   -0.376448
  H     -0.895278    0.442020   -1.349149
  C     -1.989342   -0.596520    0.016897
  H     -2.867266   -0.641404   -0.625141
  H     -2.331696   -0.441206    1.040293
  H     -1.483703   -1.568068   -0.028454
