14
E = -556886.65025 kJ/mol
  C     -2.056468    0.562319   -0.137569
  H     -2.859411    0.978780    0.454342
  H     -2.032149    0.804234   -1.192816
  C     -1.127491   -0.227945    0.405730
  H     -1.155359   -0.450298    1.467268
  C     -0.000587   -0.846189   -0.360711
  H     -0.081351   -0.550162   -1.418267
  H     -0.085459   -1.934138   -0.311490
  N      1.283580   -0.476117    0.230307
  H      2.005055   -1.079456   -0.145059
  C      1.628481    0.914418   -0.040018
  H      2.620243    1.126518    0.354669
  H      0.915564    1.565085    0.463886
  H      1.612468    1.164147   -1.109866
