14
E = -556880.63611 kJ/mol
  C      2.416080   -0.172975    0.302492
  H      3.349404    0.371949    0.314664
  H      2.393018   -1.142490    0.783267
  C      1.326806    0.327041   -0.283878
  H      1.379990    1.304738   -0.754825
  C      0.009466   -0.374484   -0.350053
  H      0.076141   -1.332470    0.170849
  H     -0.236354   -0.594628   -1.402243
  N     -1.039681    0.417594    0.288490
  H     -1.025035    1.353899   -0.101154
  C     -2.355355   -0.171768    0.075849
  H     -3.120943    0.476877    0.497123
  H     -2.402140   -1.128893    0.595369
  H     -2.587570   -0.351645   -0.982727
