14
E = -556877.64592 kJ/mol
  C     -2.306128   -0.167661   -0.230793
  H     -3.015310   -0.970890   -0.373641
  H     -2.639906    0.839605   -0.446080
  C     -1.062871   -0.403599    0.193816
  H     -0.762946   -1.424862    0.401842
  C     -0.048366    0.672561    0.425293
  H      0.225285    0.680419    1.493364
  H     -0.498448    1.638062    0.190383
  N      1.132576    0.498943   -0.423733
  H      1.675597    1.353513   -0.388394
  C      1.974258   -0.608720    0.012106
  H      2.905186   -0.598320   -0.551492
  H      1.475690   -1.554183   -0.194875
  H      2.212049   -0.577117    1.084751
