19
E = -1011641.38457 kJ/mol
  C      1.906658    0.717020   -0.000013
  C      1.403113   -0.580856    0.000004
  C      0.015094   -0.775387   -0.000003
  C     -0.851106    0.317558   -0.000029
  C     -0.336498    1.618018   -0.000045
  C      1.036991    1.810611   -0.000036
  H      2.977833    0.876002   -0.000009
  H     -0.369033   -1.786506    0.000014
  H     -1.027121    2.450587   -0.000064
  H      1.434167    2.817548   -0.000050
  O     -2.213201    0.221591   -0.000034
  C     -2.752904   -1.090230   -0.000102
  H     -3.831446   -0.968065   -0.000159
  H     -2.447250   -1.642296   -0.891466
  H     -2.447353   -1.642349    0.891265
  C      2.318811   -1.773347    0.000039
  H      2.150878   -2.395676    0.880028
  H      2.150770   -2.395815   -0.879829
  H      3.362343   -1.462905   -0.000048
