19
E = -1011638.34837 kJ/mol
  C     -2.256831   -0.886447    0.259167
  C     -0.940204   -1.311070    0.135202
  C      0.076342   -0.388475   -0.132144
  C     -0.238918    0.966150   -0.269182
  C     -1.566917    1.380066   -0.142966
  C     -2.580009    0.464524    0.120504
  H     -3.031933   -1.613237    0.464978
  H     -0.673178   -2.354691    0.236443
  H      0.524864    1.702453   -0.470749
  H     -1.800338    2.431599   -0.250616
  H     -3.604735    0.795720    0.218068
  O      1.327712   -0.918666   -0.259754
  C      2.419497   -0.011890   -0.417448
  H      2.188763    0.719978   -1.195280
  H      3.235522   -0.634067   -0.779588
  C      2.797731    0.652458    0.891737
  H      3.067841   -0.104325    1.625990
  H      3.653002    1.311819    0.741249
  H      1.974753    1.240968    1.292411
