17
E = -909430.87354 kJ/mol
  C      1.522703    0.115408    0.000112
  O      1.604993    1.324972    0.000285
  O      0.347331   -0.551255   -0.000041
  C      2.676779   -0.843629   -0.000043
  H      2.620464   -1.483315    0.878394
  H      2.620692   -1.482725   -0.878926
  H      3.607797   -0.287777    0.000251
  C     -0.822403    0.291618    0.000029
  H     -0.796575    0.933085    0.882011
  H     -0.796479    0.933402   -0.881719
  C     -2.035325   -0.607917   -0.000253
  H     -1.999010   -1.253859   -0.878367
  H     -1.999224   -1.254139    0.877667
  C     -3.317228    0.216589   -0.000238
  H     -3.370311    0.856985   -0.880852
  H     -4.195156   -0.426864   -0.001425
  H     -3.371416    0.855271    0.881544
