17
E = -909431.60306 kJ/mol
  C     -1.354731    0.162600   -0.043501
  O     -1.060421    1.320898   -0.250158
  O     -0.498223   -0.870999   -0.201003
  C     -2.692605   -0.326938    0.428170
  H     -3.023230   -1.164741   -0.180817
  H     -2.599236   -0.678629    1.454741
  H     -3.409754    0.485476    0.385242
  C      0.837200   -0.504292   -0.607128
  H      1.238960   -1.403968   -1.070063
  H      0.776934    0.292256   -1.348279
  C      1.680193   -0.077152    0.576094
  H      1.218960    0.794579    1.040316
  H      1.687814   -0.882481    1.312314
  C      3.100603    0.251357    0.131119
  H      3.102077    1.068839   -0.590131
  H      3.716314    0.551667    0.977156
  H      3.574833   -0.611728   -0.337657
