17
E = -909430.59416 kJ/mol
  C      1.175981    0.057690    0.117707
  O      1.045026    0.869202    1.008386
  O      0.269802   -0.901201   -0.182449
  C      2.346721   -0.024302   -0.818135
  H      2.706256   -1.048457   -0.881882
  H      2.025571    0.277115   -1.814417
  H      3.132702    0.638070   -0.472333
  C     -0.943743   -0.914595    0.600928
  H     -1.126635   -1.963698    0.825078
  H     -0.772166   -0.364888    1.524990
  C     -2.085050   -0.315941   -0.195504
  H     -2.995150   -0.438020    0.397042
  H     -2.220074   -0.896515   -1.110038
  C     -1.870543    1.154569   -0.530272
  H     -0.985742    1.287523   -1.152138
  H     -2.723088    1.555418   -1.076901
  H     -1.731052    1.744967    0.374681
