17
E = -801739.30060 kJ/mol
  N      1.407051   -0.775798    0.994659
  C     -0.015296   -1.185870    0.989683
  C     -0.777370    0.000001    1.570606
  C     -0.015297    1.185870    0.989681
  N      1.407050    0.775799    0.994658
  C      1.764226   -0.000000   -0.175097
  C      3.203378   -0.000001   -0.582395
  H      1.033214   -0.000001   -0.984086
  H     -0.102900   -2.080838    1.601841
  H     -0.357707   -1.415805   -0.022969
  H     -1.835398   -0.000000    1.309606
  H     -0.680997    0.000002    2.655779
  H     -0.102901    2.080839    1.601836
  H     -0.357708    1.415804   -0.022971
  H      3.823091    0.000002    0.311021
  H      3.430401   -0.886190   -1.175479
  H      3.430400    0.886186   -1.175483
