33
E = -1274768.10674 kJ/mol
  N      0.429806   -0.000025    0.186502
  C      1.243081   -1.192536    0.418704
  C      2.455999   -1.236641   -0.499339
  C      3.321939   -0.000112   -0.312601
  C      2.456063    1.236452   -0.499405
  C      1.243148    1.192451    0.418644
  C     -0.766364    0.000061    1.045681
  C     -1.642701   -1.230650    0.784799
  C     -2.117139   -1.263777   -0.665783
  C     -2.908160    0.000052   -1.001053
  C     -2.117001    1.263835   -0.665935
  C     -1.642565    1.230835    0.784651
  H      0.634730   -2.076022    0.237611
  H      1.576821   -1.231365    1.473596
  H      2.107032   -1.287086   -1.533855
  H      3.022119   -2.148119   -0.296629
  H      4.160819   -0.000154   -1.010647
  H      3.741215   -0.000095    0.698349
  H      2.107097    1.286863   -1.533923
  H      3.022227    2.147913   -0.296742
  H      0.634836    2.075962    0.237522
  H      1.576897    1.231305    1.473532
  H     -0.454349    0.000108    2.106712
  H     -2.508753   -1.157205    1.449501
  H     -1.134383   -2.155645    1.054940
  H     -2.733674   -2.148762   -0.837488
  H     -1.248693   -1.334424   -1.324756
  H     -3.836078    0.000137   -0.418960
  H     -3.194998    0.000004   -2.054672
  H     -2.733437    2.148867   -0.837750
  H     -1.248544    1.334304   -1.324912
  H     -2.508622    1.157571    1.449367
  H     -1.134138    2.155808    1.054670
