17
E = -801753.02196 kJ/mol
  N      1.430987   -0.761211    1.143610
  C      0.020241   -1.188783    1.081636
  C     -0.819699   -0.000000    0.606692
  C      0.020241    1.188783    1.081637
  N      1.430987    0.761210    1.143611
  C      1.823545    0.000000   -0.026329
  C      3.278288    0.000000   -0.374290
  H      1.131302    0.000001   -0.865316
  H     -0.261702   -1.487384    2.090809
  H     -0.054573   -2.058539    0.427986
  H     -0.942044    0.000000   -0.473766
  H     -1.812793   -0.000000    1.051408
  H     -0.261702    1.487384    2.090809
  H     -0.054573    2.058538    0.427986
  H      3.862052    0.000001    0.542955
  H      3.530263   -0.885609   -0.958141
  H      3.530263    0.885608   -0.958143
