78
E = -6049531.83226 kJ/mol
  N      2.021878   -0.000039   -0.017468
  N     -0.000025    2.132285   -0.001129
  N     -2.021847   -0.000042   -0.017406
  N      0.000024   -2.132351   -0.001374
  C      2.858286    1.087714    0.093128
  C      4.244212    0.685699    0.327512
  C      2.858317   -1.087785    0.093067
  C      4.244238   -0.685742    0.327463
  C      1.131699   -2.910757   -0.091469
  C      0.692930   -4.268507   -0.275632
  C     -1.131634   -2.910760   -0.091411
  C     -0.692869   -4.268508   -0.275591
  C     -2.858267   -1.087806    0.093129
  C     -4.244210   -0.685783    0.327496
  C     -2.858285    1.087695    0.093136
  C     -4.244219    0.685649    0.327506
  C     -1.131685    2.910699   -0.091179
  C     -0.692923    4.268447   -0.275328
  C      1.131644    2.910706   -0.091160
  C      0.692877    4.268450   -0.275316
  C      2.464992    2.447615   -0.004795
  C      2.465027   -2.447681   -0.004944
  C     -2.464975   -2.447689   -0.004863
  C     -2.465037    2.447592   -0.004808
  C      3.536258    3.479524   -0.018099
  C      3.536331   -3.479560   -0.018210
  C     -3.536268   -3.479581   -0.018123
  C     -3.536330    3.479477   -0.018134
  H     -1.358126   -5.121762   -0.412749
  H      1.358183   -5.121760   -0.412823
  H      5.086509   -1.356436    0.503900
  H      5.086455    1.356411    0.504022
  H      1.358143    5.121691   -0.412499
  H     -1.358194    5.121683   -0.412514
  H     -5.086484    1.356347    0.503959
  H     -5.086470   -1.356491    0.503925
  C      4.519195    3.474320   -1.033588
  C      3.607937    4.465655    0.991342
  C      5.553413    4.422501   -1.040214
  C      4.640892    5.416325    0.997100
  H      4.464236    2.720949   -1.827167
  H      6.319202    4.430526   -1.822480
  H      4.717011    6.175730    1.781831
  H      2.860064    4.469280    1.792406
  C      3.608101   -4.465629    0.991281
  C      4.519220   -3.474362   -1.033744
  C      4.641152   -5.416196    0.997091
  C      5.553535   -4.422442   -1.040324
  H      2.860227   -4.469279    1.792344
  H      4.717339   -6.175558    1.781856
  H      6.319286   -4.430480   -1.822628
  H      4.464174   -2.721051   -1.827375
  C     -4.519222   -3.474347   -1.033596
  C     -3.608009   -4.465655    0.991363
  C     -5.553549   -4.422415   -1.040137
  C     -4.641073   -5.416207    0.997213
  H     -4.464194   -2.721044   -1.827234
  H     -6.319354   -4.430418   -1.822387
  H     -4.717241   -6.175569    1.781981
  H     -2.860088   -4.469338    1.792383
  C     -3.608063    4.465623    0.991291
  C     -4.519187    3.474301   -1.033699
  C     -4.641004    5.416309    0.996976
  C     -5.553398    4.422491   -1.040393
  H     -2.860252    4.469230    1.792411
  H     -4.717151    6.175731    1.781689
  H     -6.319120    4.430537   -1.822725
  H     -4.464193    2.720928   -1.827273
  C     -5.602416    5.378136   -0.019230
  C      5.602404    5.378104   -0.019009
  C      5.602622   -5.377974   -0.019061
  C     -5.602627   -5.377927   -0.018856
  H      0.000029   -1.111839    0.075039
  H     -0.000037    1.111776    0.075306
  F      6.603056   -6.282606   -0.013176
  F     -6.603111   -6.282504   -0.012898
  F     -6.602716    6.282916   -0.013489
  F      6.602759    6.282824   -0.013162
