78
E = -6049530.80248 kJ/mol
  N      1.748033    0.717704    0.726269
  N     -0.805067    1.984375    0.009996
  N     -1.755146   -0.691744   -0.720392
  N      0.795453   -1.956218   -0.005514
  C      2.047177    2.009854    1.092954
  C      3.423407    2.134382    1.572361
  C      2.906199    0.015185    0.971359
  C      3.963376    0.875698    1.499669
  C      2.085151   -2.281574    0.347826
  C      2.216562   -3.706361    0.194554
  C      0.093724   -3.084716   -0.364040
  C      0.992689   -4.199902   -0.226755
  C     -2.098413   -2.001468   -0.966911
  C     -3.457225   -2.117907   -1.494114
  C     -2.869259    0.029346   -1.086044
  C     -3.944290   -0.837942   -1.566378
  C     -2.053271    2.327714   -0.457816
  C     -2.189952    3.749782   -0.285135
  C     -0.141004    3.096299    0.477081
  C     -1.026846    4.216982    0.305789
  C      1.171650    3.121177    1.000746
  C      3.079590   -1.379466    0.789655
  C     -1.251627   -3.125256   -0.794722
  C     -3.015120    1.436147   -0.986230
  C      1.668743    4.432193    1.504125
  C      4.410285   -1.972143    1.101155
  C     -1.812829   -4.471918   -1.095562
  C     -4.277266    2.040753   -1.496505
  H      0.727534   -5.239172   -0.423108
  H      3.130989   -4.269253    0.382026
  H      4.968228    0.558572    1.781555
  H      3.907317    3.054303    1.903411
  H     -0.794430    5.242052    0.595962
  H     -3.065004    4.329685   -0.579024
  H     -4.931902   -0.513536   -1.896652
  H     -3.958853   -3.043668   -1.778850
  C      1.946214    5.498565    0.621651
  C      1.893807    4.614042    2.886322
  C      2.446908    6.718973    1.104252
  C      2.394045    5.828627    3.379891
  H      1.786925    5.361895   -0.453913
  H      2.677139    7.550502    0.431952
  H      2.574759    5.984014    4.447854
  H      1.674216    3.792804    3.576782
  C      4.567680   -2.848408    2.197065
  C      5.532296   -1.679312    0.295654
  C      5.814240   -3.427438    2.482184
  C      6.783986   -2.252575    0.571034
  H      3.705926   -3.068742    2.836140
  H      5.952488   -4.104379    3.330486
  H      7.659893   -2.040531   -0.048885
  H      5.416653   -1.004606   -0.559675
  C     -1.351319   -5.219865   -2.200600
  C     -2.828253   -5.016928   -0.279338
  C     -1.890777   -6.483563   -2.489586
  C     -3.374616   -6.279214   -0.558082
  H     -0.574561   -4.798167   -2.847862
  H     -1.549696   -7.070455   -3.347277
  H     -4.159020   -6.715097    0.067788
  H     -3.187076   -4.444918    0.583041
  C     -5.203035    2.653206   -0.623827
  C     -4.566807    2.000649   -2.878534
  C     -6.391644    3.216182   -1.116978
  C     -5.751337    2.559079   -3.382404
  H     -4.995481    2.674012    0.451868
  H     -7.121760    3.687460   -0.452623
  H     -5.987075    2.537874   -4.450641
  H     -3.850702    1.531652   -3.561777
  C     -6.647581    3.160145   -2.491668
  C      2.667986    6.863103    2.478468
  C      6.904381   -3.123724    1.659551
  C     -2.897199   -6.994279   -1.662189
  H      0.410246   -1.007988    0.000609
  H     -0.422915    1.034900    0.007797
  F      8.102540   -3.686469    1.924090
  F     -3.422637   -8.206748   -1.937477
  F     -7.788127    3.697879   -2.973033
  F      3.160686    8.027881    2.949154
