11
E = -605934.66312 kJ/mol
  O     -0.351423   -1.120749    0.762538
  C     -1.767742    0.663381    0.032574
  C     -0.498574   -0.146287    0.039486
  C      0.572620    0.312110   -0.891097
  C      1.745062   -0.325913   -0.963541
  H     -1.542874    1.701637    0.281751
  H     -2.199005    0.660013   -0.969839
  H     -2.477884    0.254404    0.744482
  H      0.371575    1.180317   -1.506908
  H      2.526568    0.000165   -1.634553
  H      1.920544   -1.190597   -0.336882
