11
E = -605937.59384 kJ/mol
  O     -1.564328    0.701700   -0.066194
  C     -0.428725   -1.162903    0.901766
  C     -0.550111    0.014675   -0.032676
  C      0.584391    0.341994   -0.926645
  C      1.733582   -0.343225   -0.968248
  H     -0.262306   -2.080622    0.337466
  H      0.417713   -1.029686    1.575552
  H     -1.344702   -1.249279    1.477942
  H      0.421065    1.199896   -1.567167
  H      2.528317   -0.057362   -1.642780
  H      1.906047   -1.201006   -0.332973
