22
E = -1408627.86473 kJ/mol
  C     -1.449900    0.562745    0.074291
  C     -0.457438   -0.460087   -0.113135
  C     -2.781990    0.247618    0.013898
  O     -0.784296   -1.654695   -0.314374
  O     -3.202081   -0.985950   -0.221757
  C      0.986926   -0.113200   -0.052528
  C     -3.879949    1.234006    0.205471
  H     -2.356596   -1.530881   -0.310583
  H     -1.169728    1.578978    0.294171
  C      1.905851   -1.144072    0.172623
  C      3.266709   -0.866466    0.235736
  C      3.724478    0.440173    0.061428
  C      2.813415    1.468042   -0.176294
  C      1.448768    1.195948   -0.227881
  H      1.531722   -2.151571    0.296539
  H      3.972144   -1.666310    0.419494
  H      4.784124    0.655076    0.107158
  H      3.165749    2.480461   -0.324651
  H      0.753037    1.998866   -0.430873
  H     -3.486478    2.228621    0.394775
  H     -4.505086    0.923272    1.042428
  H     -4.508555    1.253761   -0.684660
