22
E = -1408626.13711 kJ/mol
  C     -1.455954    0.552438    0.074107
  C     -0.472121   -0.387783   -0.095854
  C     -2.842804    0.171165    0.027350
  O     -0.768099   -1.667681   -0.294089
  O     -3.193766   -1.014644   -0.159530
  C      0.966885   -0.090753   -0.056172
  C     -3.881557    1.241883    0.214777
  H     -1.776914   -1.702964   -0.279773
  H     -1.192252    1.578659    0.273341
  C      1.872570   -1.125982    0.206548
  C      3.237416   -0.861359    0.267820
  C      3.713329    0.432453    0.058679
  C      2.814865    1.463403   -0.216685
  C      1.449207    1.205571   -0.275465
  H      1.495152   -2.126534    0.366355
  H      3.930559   -1.665396    0.478285
  H      4.775338    0.635390    0.103227
  H      3.179449    2.466479   -0.395953
  H      0.761857    2.005805   -0.516690
  H     -4.874147    0.803135    0.175699
  H     -3.779684    1.996742   -0.565669
  H     -3.732853    1.739724    1.173460
