49
E = -9683796.10554 kJ/mol
  N      7.049753    0.297690    6.058522
  C      7.705029   -0.221618    7.266973
  C      6.815345    0.000461    8.489104
  C      5.453498   -0.686046    8.313462
  C      4.840834   -0.240201    6.973410
  C      5.820278   -0.462472    5.819909
  C      7.952900    0.205091    4.905805
  C      8.965079    1.353316    4.888148
  C      9.922939    1.276218    3.697954
  C     10.978571    0.186249    3.853750
  O     11.029580   -0.511239    4.863801
  C     11.980324   -0.003181    2.747447
  C     12.945513   -1.021877    2.897319
  C     13.912181   -1.242392    1.909602
  C     13.909418   -0.431378    0.767961
  C     12.965045    0.584509    0.589898
  C     11.998586    0.796101    1.584963
  F     14.841687   -0.633711   -0.184755
  O      5.747751   -2.087661    8.256935
  C      4.548240   -0.370219    9.500725
  C      3.933687    0.891481    9.650376
  C      3.131896    1.185669   10.764939
  C      2.944171    0.206133   11.754654
  C      3.556245   -1.051400   11.639105
  C      4.355502   -1.327551   10.517247
  Br     1.857684    0.588383   13.267085
  H      7.931546   -1.306235    7.164110
  H      8.661092    0.305685    7.408622
  H      7.296613   -0.404900    9.396726
  H      6.651688    1.082428    8.634258
  H      4.591871    0.833100    7.011716
  H      3.900434   -0.796534    6.796636
  H      6.023405   -1.551657    5.702116
  H      5.366320   -0.100700    4.880257
  H      8.478591   -0.774929    4.878223
  H      7.334794    0.274046    3.991356
  H      9.560660    1.352003    5.815433
  H      8.403877    2.302540    4.856889
  H     10.456134    2.235774    3.564652
  H      9.370875    1.104799    2.754147
  H     12.918963   -1.633828    3.803487
  H     14.667674   -2.027813    2.008381
  H     12.997879    1.194980   -0.316947
  H     11.262538    1.593219    1.444073
  H      4.911964   -2.527200    8.031899
  H      4.077905    1.669491    8.892959
  H      2.658522    2.166341   10.863637
  H      3.413372   -1.805604   12.418826
  H      4.848539   -2.299126   10.432460
