43
E = -2463787.94930 kJ/mol
  N     10.870812    1.687904    5.547263
  C      9.561175    2.108977    5.275921
  O      9.311703    3.295506    5.136369
  C      8.530037    1.000953    5.185715
  C      9.127858   -0.325754    4.703196
  C     10.293078   -0.695393    5.627569
  C     11.352689    0.386979    5.707744
  O     12.538408    0.174336    5.906419
  C      8.110949   -1.472924    4.640204
  C      6.993950   -1.284843    3.615231
  O      6.075513   -0.326954    4.130148
  C      6.270541   -2.605128    3.303354
  C      5.206098   -2.423185    2.231338
  O      4.829792   -1.318041    1.844635
  C      4.612251   -3.725179    1.697696
  C      4.603192   -4.782417    2.830800
  C      4.367228   -4.098006    4.185061
  C      5.597880   -3.241347    4.548947
  C      3.228167   -3.493996    1.088065
  C      4.039303   -5.092399    5.298206
  H     11.570830    2.429783    5.601011
  H      8.101178    0.857994    6.197264
  H      7.710546    1.353977    4.546754
  H      9.533680   -0.173683    3.682260
  H      9.906964   -0.862969    6.652422
  H     10.803137   -1.620912    5.316067
  H      7.656326   -1.618558    5.638312
  H      8.658148   -2.402566    4.392757
  H      7.441247   -0.916310    2.666191
  H      5.447542   -0.190983    3.398530
  H      7.002055   -3.325813    2.886455
  H      5.305352   -4.056230    0.897297
  H      5.560723   -5.335789    2.869106
  H      3.816636   -5.529960    2.624197
  H      3.500718   -3.416053    4.062479
  H      5.299858   -2.427222    5.231345
  H      6.337455   -3.871094    5.077614
  H      3.257800   -2.681254    0.346370
  H      2.502727   -3.209183    1.869249
  H      2.865097   -4.413680    0.601000
  H      3.917950   -4.578787    6.266987
  H      3.107265   -5.642356    5.083321
  H      4.854509   -5.830515    5.405530
