68
E = -4313710.60785 kJ/mol
  C     -0.120714   -1.373391   -0.341673
  O     -0.060301   -2.583281   -0.628163
  C      1.167249   -0.775984    0.173348
  O      2.138855   -1.690141    0.291620
  C     -1.335776   -0.562313   -0.459473
  N     -4.031186   -2.592426   -1.916604
  C     -2.706192   -2.258342   -1.767647
  C     -2.591471   -1.180107   -0.882856
  C     -4.493311    0.056584    0.462381
  C     -5.878046    0.079559    0.674972
  C     -6.723175   -0.823829   -0.025933
  C     -6.208590   -1.761186   -0.929270
  C     -3.937443   -0.868688   -0.449491
  C     -4.814643   -1.775605   -1.125252
  C     -6.450529    1.101951    1.648946
  C     -6.132970    2.506506    1.196776
  C     -5.122700    3.301392    1.631015
  C     -4.891107    4.657812    1.009492
  C     -4.131714    2.927163    2.706649
  H      1.684178   -2.514404   -0.010938
  H     -4.374946   -3.345777   -2.500950
  H     -1.926839   -2.800720   -2.299196
  H     -3.853588    0.767719    0.986779
  H     -7.805219   -0.785019    0.147293
  H     -6.868008   -2.458098   -1.458411
  H     -7.545453    0.971791    1.712039
  H     -6.051646    0.914185    2.660751
  H     -6.756242    2.888944    0.375696
  H     -5.639263    4.884307    0.233522
  H     -4.924655    5.455398    1.774754
  H     -3.888486    4.705168    0.544498
  H     -4.097493    3.702952    3.493461
  H     -4.351809    1.960669    3.183896
  H     -3.114845    2.864739    2.274721
  C      1.332889    0.563040    0.456679
  C     -1.169985    0.776797   -0.176556
  C      0.117817    1.374084    0.338920
  C      2.588432    1.180722    0.880684
  O     -2.141443    1.691068   -0.295256
  O      0.057341    2.583908    0.625708
  C      2.702770    2.257939    1.766742
  C      3.934568    0.869701    0.447594
  H     -1.686893    2.515261    0.007665
  N      4.027704    2.591853    1.916633
  H      1.923183    2.799731    2.298549
  C      4.490793   -0.054449   -0.465196
  C      4.811495    1.775836    1.124790
  H      4.371234    3.344551    2.501953
  C      5.875652   -0.077191   -0.677129
  H      3.851211   -0.764646   -0.991123
  C      6.205539    1.761545    0.929536
  C      6.720507    0.825147    0.025429
  C      6.448565   -1.098921   -1.651468
  H      6.864725    2.457880    1.459725
  H      7.802625    0.786493   -0.147380
  C      6.136093   -2.503653   -1.196303
  H      7.542897   -0.965602   -1.717976
  H      6.045989   -0.913693   -2.662225
  C      5.128103   -3.302659   -1.628253
  H      6.761345   -2.882308   -0.374985
  C      4.901121   -4.658445   -1.003677
  C      4.135045   -2.933569   -2.703753
  H      5.650799   -4.881171   -0.228069
  H      4.936122   -5.457534   -1.767293
  H      3.899174   -4.707669   -0.537434
  H      4.100545   -3.712311   -3.487620
  H      4.353390   -1.968698   -3.185051
  H      3.118728   -2.870566   -2.270615
