34
E = -3506537.85077 kJ/mol
  Cl    -4.354588    5.732089   -6.360670
  O      3.220912    3.721872   -7.981326
  O      0.890636    0.764597   -7.006737
  N      1.463390    4.739062   -6.952948
  N     -0.362143    2.562303   -6.341387
  C      2.018978    3.772844   -7.767078
  C      1.035513    2.769182   -8.326344
  C      0.527078    1.913924   -7.188679
  C     -2.177777    4.141179   -6.425046
  C     -2.658706    5.434659   -6.546733
  C     -1.797457    6.496492   -6.820434
  C     -0.443878    6.234963   -6.979138
  C      0.077213    4.939638   -6.847049
  C     -0.807100    3.882562   -6.558958
  C      2.370718    5.761181   -6.439498
  C     -0.931851    1.860302   -5.236260
  C     -0.912832    2.472222   -3.982018
  C     -1.491623    1.829242   -2.892074
  C     -2.077342    0.573437   -3.051772
  C     -2.085248   -0.033691   -4.306828
  C     -1.517141    0.606568   -5.405998
  H      1.568482    2.127196   -9.019232
  H      0.209804    3.280417   -8.824803
  H     -2.851456    3.324397   -6.200946
  H     -2.184147    7.501331   -6.916206
  H      0.230831    7.049922   -7.205158
  H      3.303501    5.276170   -6.166375
  H      1.915389    6.222029   -5.566741
  H      2.589674    6.522767   -7.189698
  H     -0.450077    3.445596   -3.872944
  H     -1.477803    2.304451   -1.920052
  H     -2.523284    0.071240   -2.203757
  H     -2.538412   -1.007913   -4.434682
  H     -1.516254    0.140565   -6.380862
