31
E = -3239812.88132 kJ/mol
  C      9.332261   -1.966761    1.705978
  C      9.000595   -0.768376    1.059975
  C      8.809488    0.401340    1.780756
  C      8.951339    0.368869    3.165948
  C      9.278255   -0.809798    3.835065
  C      9.468998   -1.971351    3.100719
  N      9.581414   -3.119103    0.970186
  S      8.718816    1.837502    4.098124
  O      7.927739    2.768417    3.330249
  O      8.390515    1.488951    5.468856
  N     10.278283    2.476538    4.257239
  C     11.094780    2.802371    3.185332
  O     10.720864    2.701740    2.028602
  C     12.457869    3.267819    3.566301
  C     12.733629    3.863871    4.800685
  C     14.028470    4.286374    5.092146
  C     15.048978    4.108665    4.159666
  C     14.770777    3.519784    2.925710
  C     13.477628    3.105725    2.625178
  H      8.895839   -0.755617   -0.018345
  H      8.559112    1.330303    1.289385
  H      9.358431   -0.814573    4.913982
  H      9.720750   -2.894121    3.609735
  H      9.152158   -3.148990    0.058793
  H      9.468218   -3.985057    1.473193
  H     10.680156    2.325254    5.172170
  H     11.940082    4.038556    5.516774
  H     14.237861    4.760947    6.041664
  H     16.054711    4.434437    4.390308
  H     13.235442    2.656455    1.671074
  H     15.561863    3.386185    2.199705
