35
E = -2291698.47067 kJ/mol
  N     -6.399330   -3.340216   -0.265393
  C     -6.756522   -2.057550   -0.145634
  N     -7.960903   -1.528752   -0.405989
  C     -8.902916   -2.370193   -0.833120
  C     -8.654395   -3.745662   -1.011800
  C     -7.370302   -4.156414   -0.698910
  N     -5.807483   -1.192650    0.347034
  N    -10.125363   -1.828287   -1.150302
  C     -9.712596   -4.679229   -1.512409
  C    -10.915767   -4.742275   -0.596895
  C    -12.211919   -4.728435   -1.133841
  C    -13.334090   -4.776762   -0.309594
  C    -13.165866   -4.837389    1.091698
  C    -11.878427   -4.847018    1.623425
  C    -10.761967   -4.795851    0.783252
  O    -14.620354   -4.764500   -0.742341
  C    -14.805622   -4.710118   -2.149455
  O    -14.312682   -4.875797    1.815328
  C    -14.157205   -4.939206    3.226136
  H     -4.858457   -1.516101    0.261174
  H     -5.967080   -0.220678    0.142029
  H    -10.253384   -0.891606   -0.797050
  H    -10.922418   -2.437879   -1.030684
  H     -7.100891   -5.203040   -0.809462
  H     -9.275533   -5.675002   -1.627472
  H    -10.044689   -4.361874   -2.506061
  H    -12.330639   -4.680323   -2.208428
  H    -11.733259   -4.886915    2.693172
  H     -9.768235   -4.786574    1.215281
  H    -14.378033   -3.796309   -2.567700
  H    -14.359275   -5.578503   -2.638379
  H    -15.879641   -4.714793   -2.304577
  H    -15.163525   -4.966560    3.631226
  H    -13.616765   -5.840864    3.521245
  H    -13.632310   -4.059223    3.603425
