36
E = -4140044.06998 kJ/mol
  S      1.371484    5.373817    1.950456
  N      0.191300    5.886282    0.805580
  C     -0.592993    4.910973    0.292440
  N     -0.268120    3.700023    0.895527
  C      0.797645    3.704369    1.774334
  N      1.285665    2.659948    2.326955
  S     -1.761174    5.114566   -0.858224
  C      0.229357    7.253372    0.302290
  C      1.177709    7.384667   -0.877379
  C     -0.921761    2.475892    0.570464
  C     -1.770066    1.895317    1.506876
  C     -2.397928    0.692619    1.195003
  C     -2.175824    0.088201   -0.041941
  C     -1.319913    0.682278   -0.969192
  C     -0.682541    1.881513   -0.664260
  C      2.374264    2.889305    3.191499
  C      3.612576    2.308963    2.896415
  C      4.699320    2.522156    3.739045
  C      4.559242    3.299531    4.889786
  C      3.321419    3.860704    5.197569
  C      2.229270    3.656428    4.355624
  H      0.525681    7.894212    1.133885
  H     -0.792626    7.498310    0.016266
  H      1.195911    8.415267   -1.230974
  H      0.840781    6.743149   -1.690003
  H      2.189753    7.098111   -0.592895
  H     -1.927090    2.383436    2.459690
  H     -3.060522    0.230010    1.914323
  H     -2.668279   -0.844538   -0.282737
  H     -1.148698    0.212228   -1.928496
  H     -0.019389    2.364577   -1.369179
  H      3.703289    1.700900    2.005689
  H      5.656493    2.077094    3.499684
  H      5.404985    3.456395    5.545742
  H      3.200024    4.449265    6.097914
  H      1.256639    4.063345    4.604210
