42
E = -2617479.66598 kJ/mol
  O     -4.181795    3.657857    2.504578
  O     -3.152418    5.544676    3.336644
  O      0.051889    1.907748    0.805293
  O      3.854196   -0.397960    4.493221
  C     -4.281668    4.687076    3.494050
  C     -2.203889    4.708168    2.783361
  C     -0.846073    4.918338    2.641397
  C     -0.098405    3.937421    1.972874
  C     -0.751641    2.801990    1.454710
  C     -2.130691    2.596142    1.600961
  C     -2.825989    3.577203    2.281641
  C     -0.297837    0.526089    0.939644
  C      0.957750   -0.275954    0.693023
  C      1.403406    4.002862    1.837534
  C      2.003578    5.312002    2.349049
  C      2.060092    2.828469    2.535067
  C      3.273192    2.327097    2.067694
  C      3.915431    1.254357    2.690859
  C      3.328786    0.662660    3.812153
  C      2.116341    1.160839    4.299233
  C      1.495750    2.232585    3.668958
  C      5.082296   -0.911428    4.002464
  H     -5.192641    5.253870    3.332980
  H     -4.244535    4.225166    4.487026
  H     -0.380622    5.806362    3.044825
  H     -2.630498    1.728932    1.194266
  H     -0.681539    0.355719    1.949702
  H     -1.081948    0.269473    0.221055
  H      0.736781   -1.341597    0.755287
  H      1.356105   -0.060264   -0.297326
  H      1.712241   -0.023675    1.437550
  H      1.644452    3.906922    0.773914
  H      3.081096    5.306514    2.185923
  H      1.580044    6.174638    1.832312
  H      1.831967    5.423550    3.420733
  H      3.724630    2.766683    1.184351
  H      4.849761    0.890277    2.288548
  H      1.677992    0.692162    5.171270
  H      0.550203    2.600748    4.052158
  H      5.342812   -1.737112    4.657134
  H      4.975905   -1.275912    2.978259
  H      5.868491   -0.154183    4.037866
