50
E = -4107940.15321 kJ/mol
  Cl     0.438147    4.452865   10.272501
  O      6.349861    4.524094    8.913155
  N      6.149345    4.472070   11.985639
  N      8.040154    3.828291   12.949948
  N      8.209020    5.117156   12.489951
  N      5.661461    7.479588   11.889677
  C      6.800703    3.447957   12.643979
  C      7.073135    5.495168   11.909446
  C      6.785809    6.794030   11.236594
  C      5.520502    3.685838    9.264760
  C      3.095927    4.036024    9.868236
  C      2.106648    4.455565   10.770441
  C      2.443074    4.869595   12.072379
  C      3.789630    4.881735   12.459507
  C      4.791522    4.485492   11.556429
  C      4.449274    4.052570   10.259889
  C      6.185754    2.119254   12.931124
  C      6.136280    8.127245   13.120190
  C      5.002312    8.449346   14.090360
  C      5.046658    8.438963   10.963308
  C      4.151247    7.742485    9.939163
  C      5.521368    2.292095    8.722765
  C      4.710904    1.275147    9.274360
  C      4.773112   -0.028129    8.752897
  C      5.633042   -0.319655    7.680022
  C      6.440435    0.694710    7.130077
  C      6.391328    1.994164    7.651249
  H      6.521104    6.584506   10.188915
  H      7.719663    7.396279   11.239582
  H      2.817439    3.709835    8.861349
  H      1.658863    5.184738   12.766000
  H      4.081428    5.206915   13.461614
  H      6.840258    7.427651   13.605558
  H      6.719272    9.048253   12.884575
  H      5.406472    8.889190   15.017480
  H      4.451943    7.531245   14.352195
  H      4.281977    9.168496   13.667914
  H      4.431218    9.135880   11.556535
  H      5.821932    9.056557   10.451280
  H      3.666558    8.484385    9.281990
  H      3.369202    7.162685   10.456095
  H      4.719929    7.047926    9.298507
  H      5.272211    2.216763   13.542217
  H      6.921842    1.514709   13.481271
  H      5.920255    1.592311   11.998490
  H      4.041562    1.499409   10.111321
  H      4.149195   -0.817211    9.184888
  H      5.677154   -1.335667    7.274513
  H      7.111013    0.466366    6.294821
  H      7.018140    2.795259    7.248035
