42
E = -3464577.76724 kJ/mol
  S     -2.189486   -3.073825   -1.849880
  O     -2.634092   -4.372105   -2.355903
  O     -3.030947   -1.900862   -2.074854
  O      3.340667   -0.618674    3.294598
  C     -1.811546   -3.240582   -0.099206
  C     -0.684173   -4.272236   -0.033992
  C      0.695779   -3.874051   -0.593245
  C     -1.480575   -1.863574    0.461549
  C     -3.065420   -3.808282    0.561747
  C      1.487160   -5.189861   -0.739084
  C     -0.580011   -2.749409   -2.541380
  C     -0.598992   -2.080373   -3.768029
  C      0.589846   -1.873995   -4.456176
  C      1.787380   -2.333542   -3.907337
  C      1.789258   -2.979774   -2.675612
  C      0.607156   -3.208642   -1.954341
  C      1.424503   -2.964078    0.399220
  C      1.824400   -1.658702    0.098352
  C      2.461840   -0.857426    1.044594
  C      2.719679   -1.351107    2.320730
  C      2.336569   -2.651852    2.642127
  C      1.699210   -3.439266    1.689964
  H     -0.558128   -4.552754    1.015690
  H     -1.029900   -5.165889   -0.562241
  H     -0.728196   -1.345387   -0.129937
  H     -2.382213   -1.252438    0.480237
  H     -1.093290   -1.971942    1.476633
  H     -3.918152   -3.147384    0.405024
  H     -3.304845   -4.794534    0.167152
  H     -2.879028   -3.886846    1.634103
  H      2.531486   -5.003954   -0.985039
  H      1.458944   -5.750340    0.196004
  H      1.041091   -5.804940   -1.522010
  H     -1.545462   -1.729804   -4.160064
  H      0.583038   -1.359851   -5.408140
  H      2.721545   -2.179471   -4.431924
  H      2.733183   -3.296291   -2.249807
  H      1.626850   -1.241591   -0.880771
  H      2.753152    0.154459    0.784009
  H      2.543009   -3.032575    3.633860
  H      1.412614   -4.445348    1.971451
  H      3.546024    0.255142    2.942394
