29
E = -2150107.94098 kJ/mol
  C      1.805768    3.839293    1.535018
  C      2.537921    4.846163    2.419687
  H      2.110432    4.777290    3.424445
  H      2.317288    5.852073    2.055448
  O      2.402503    2.918049    0.999316
  C      0.335388    4.016168    1.358007
  C     -0.340177    3.121002    0.520479
  H      0.229779    2.340103    0.034540
  C     -1.710708    3.244396    0.326681
  H     -2.228688    2.551061   -0.322877
  C     -2.420265    4.260908    0.968465
  H     -3.487584    4.356074    0.817202
  C     -1.752876    5.153583    1.804843
  H     -2.301168    5.941477    2.304326
  C     -0.378761    5.034651    1.999585
  H      0.125739    5.734316    2.652265
  C      4.013335    4.604047    2.450515
  C      4.887965    5.426049    1.737333
  H      4.494494    6.264630    1.175385
  C      6.258980    5.188177    1.735788
  H      6.948034    5.816265    1.190969
  C      6.738070    4.106572    2.462197
  C      5.899958    3.262947    3.180918
  H      6.317554    2.431569    3.729027
  C      4.534507    3.521037    3.164020
  H      3.863646    2.869360    3.710413
  N      8.182608    3.846484    2.473482
  O      8.584996    2.897998    3.146172
  O      8.901106    4.593281    1.810109
