12
E = -3019302.85292 kJ/mol
  Cl     1.699803    1.036498    1.781392
  C      0.318477    2.082530    1.826191
  C      0.382811    3.270992    2.547991
  H      1.289401    3.534717    3.074578
  C     -0.726716    4.111423    2.584093
  H     -0.695991    5.038592    3.139208
  Cl    -3.263678    4.795502    1.942561
  C     -1.882353    3.749470    1.897760
  C     -1.946687    2.561008    1.175961
  H     -2.853276    2.297283    0.649373
  C     -0.837159    1.720578    1.139859
  H     -0.867885    0.793409    0.584743
