40
E = -2223122.74073 kJ/mol
  O      4.499413    3.832469   16.466728
  H      3.808783    3.967602   17.125559
  O      0.857248    6.091697    6.601320
  C      2.102057    4.327664   13.721587
  H      1.047165    4.528710   13.571150
  C      2.588521    4.219982   15.019156
  H      1.922596    4.339772   15.866630
  C      3.942297    3.950053   15.220031
  C      4.779991    3.778303   14.125284
  H      5.825778    3.552540   14.300470
  C      4.289684    3.883875   12.820861
  C      5.245445    3.658248   11.679458
  H      6.024860    4.429239   11.700458
  H      5.772646    2.711752   11.838849
  C      4.594538    3.651248   10.334863
  H      5.223885    3.410302    9.483536
  C      3.302793    3.938623   10.127485
  C      2.349835    4.318365   11.229682
  H      1.481874    3.647188   11.153118
  C      2.936095    4.172531   12.607946
  C      1.814374    5.750471   10.993028
  H      1.061243    5.979236   11.749830
  H      2.636796    6.453542   11.149068
  C      1.214808    5.924567    9.593347
  H      0.320956    5.299640    9.498287
  H      0.901092    6.958340    9.432464
  C      2.224176    5.503949    8.539936
  C      2.664888    4.044251    8.784757
  H      1.732586    3.458679    8.814992
  C      3.395000    3.660651    7.498304
  H      3.502374    2.581925    7.390721
  H      4.393489    4.097780    7.475995
  C      2.495521    4.281208    6.415200
  H      3.026192    4.668506    5.545621
  H      1.756445    3.565866    6.048698
  C      1.724246    5.409741    7.111230
  C      3.421999    6.466251    8.494949
  H      4.072778    6.268353    7.642112
  H      4.025575    6.382838    9.398358
  H      3.053547    7.488742    8.401162
