13
E = -1000405.22245 kJ/mol
  O      1.800451    0.496241    1.267616
  O     -1.346398   -0.766713    0.211775
  O     -0.580380    1.339083   -0.121052
  C      0.923690   -0.400279    0.580050
  C      2.126839    0.131987   -0.074724
  C     -0.394583    0.184982    0.189912
  C     -2.645723   -0.299207   -0.192692
  H      0.912288   -1.416910    0.948746
  H      2.988334   -0.514197   -0.180058
  H      1.997912    0.927116   -0.797500
  H     -2.982431    0.489489    0.475146
  H     -3.295743   -1.164159   -0.129655
  H     -2.605797    0.083612   -1.209437
