24
E = -1304334.46256 kJ/mol
  C      2.396205    7.529027    9.158920
  C      3.689430    8.085657    9.089054
  C      4.595068    7.683711    8.117364
  C      1.979303    6.561081    8.258270
  C      2.873049    6.134625    7.260723
  C      4.172330    6.708417    7.211341
  N      4.834196    6.118221    6.162594
  C      4.003723    5.200712    5.557824
  C      2.785228    5.173112    6.203787
  H      5.781748    6.312432    5.888523
  C      1.582981    4.372984    5.835607
  C      0.499811    5.247924    5.183790
  N      0.899524    5.910627    3.947391
  H      5.588927    8.111591    8.068337
  H      3.982202    8.840137    9.807600
  H      1.719275    7.867110    9.932867
  H      4.345796    4.622074    4.713860
  H      1.864205    3.576675    5.140905
  H      1.166011    3.891398    6.725589
  H      0.983317    6.139946    8.325313
  H     -0.381245    4.638996    4.974139
  H      0.195601    6.021077    5.891577
  H      1.135746    5.218521    3.244487
  H      1.745896    6.445932    4.113900
