12
E = -4224728.04614 kJ/mol
  Cl     0.257978   -5.123854    5.367395
  Cl     2.428384   -2.424463    1.246578
  Cl     0.629805    0.242671    5.562650
  C      0.729943   -3.626790    4.638560
  C      1.320539   -3.646504    3.378616
  H      1.485926   -4.576955    2.855824
  C      1.691694   -2.430499    2.812552
  C      1.488652   -1.219209    3.467051
  H      1.783206   -0.285067    3.012054
  C      0.894651   -1.248526    4.725238
  C      0.507085   -2.440148    5.330699
  H      0.047369   -2.444006    6.307962
