54
E = -3905347.37050 kJ/mol
  O     -2.175313    4.030354    6.692615
  O     -0.287027    5.875820    6.793752
  O      5.359276    8.431111   -0.333054
  H      5.833315    8.434397   -1.178002
  O      4.452455    3.887887   -1.865041
  O      5.779123    4.734669   -3.526050
  O      7.200871    7.170091   -4.138943
  H      8.055613    7.131972   -3.685097
  O      8.508697    3.367012   -5.530425
  O      7.030747    1.013581   -4.587692
  H      7.934043    0.864252   -4.902251
  O      5.775804    1.398583   -2.096710
  H      6.022460    0.577858   -2.551271
  C     -3.149805    2.994024    6.698127
  H     -3.858155    3.106603    5.858443
  H     -3.692173    3.092050    7.648057
  H     -2.673859    1.999479    6.642752
  C     -1.347718    4.076794    5.594999
  C     -1.406479    3.250158    4.465485
  H     -2.163872    2.465878    4.381531
  C     -0.474995    3.431912    3.426246
  H     -0.529060    2.786566    2.542225
  C      0.517214    4.432907    3.493100
  C      0.572497    5.246277    4.653038
  H      1.337546    6.019002    4.776897
  C     -0.350131    5.082338    5.685909
  C      1.444695    4.585103    2.363409
  H      1.369236    3.806361    1.592038
  C      2.331649    5.603804    2.186000
  H      2.362285    6.410368    2.931326
  C      3.243899    5.765085    1.044209
  C      3.473184    4.731455    0.107888
  H      3.014467    3.745129    0.208416
  C      4.323163    4.951045   -0.981407
  C      4.978221    6.184873   -1.161310
  H      5.600205    6.370404   -2.041667
  C      4.763898    7.202422   -0.215587
  C      3.912132    6.997554    0.880162
  H      3.753567    7.813926    1.592153
  C      5.689432    3.761082   -2.488864
  H      6.514550    3.920462   -1.758038
  C      5.775371    2.376080   -3.115632
  H      4.897304    2.276630   -3.787439
  C      7.052974    2.284065   -3.943265
  H      7.910114    2.338594   -3.238244
  C      7.211110    3.437178   -4.926932
  H      6.406049    3.388016   -5.685398
  C      7.062502    4.739026   -4.141340
  H      7.862734    4.769604   -3.364454
  C      7.150166    6.012319   -4.964983
  H      8.017711    5.943685   -5.647104
  H      6.228536    6.103112   -5.562068
  H     -0.994736    5.553288    7.376608
  H      8.374313    3.126243   -6.455795
