19
E = -1011642.44906 kJ/mol
  C     -2.259373   -1.055981    0.000065
  C     -0.890742   -1.289652    0.000023
  C      0.004791   -0.215481   -0.000014
  C     -0.480392    1.094358   -0.000025
  C     -1.860086    1.314948    0.000021
  C     -2.753801    0.250109    0.000062
  H     -2.941831   -1.895990    0.000096
  H     -0.489715   -2.294604    0.000026
  H      0.191791    1.939434   -0.000066
  H     -2.228670    2.332720    0.000013
  H     -3.819843    0.431580    0.000098
  O      1.327657   -0.548807   -0.000055
  C      2.261876    0.527281    0.000054
  H      2.105961    1.148210    0.887324
  H      2.106105    1.148275   -0.887196
  C      3.643047   -0.082435    0.000129
  H      3.784097   -0.700573   -0.884098
  H      4.395897    0.704849    0.000260
  H      3.783937   -0.700715    0.884283
