24
E = -3877931.46096 kJ/mol
  Cl     5.757836    8.524530    4.451677
  S      2.537901   10.923810    9.452736
  N      2.498515   11.845173    8.086284
  N      3.455573    9.634233    8.975951
  N      5.175193    7.918557    7.431818
  C      3.238024   11.142289    7.168676
  C      3.777753    9.903613    7.671203
  C      4.574430    9.036617    6.854645
  C      4.781482    9.489115    5.539333
  C      4.250329   10.710953    5.033264
  H      4.468697   10.980361    3.995263
  C      3.482211   11.549980    5.829953
  H      3.077204   12.492150    5.451623
  C      4.786797    6.747703    7.038589
  N      5.366801    5.575703    7.504748
  H      5.756853    5.644465    8.441452
  C      4.491706    4.455735    7.167224
  H      3.689003    4.302921    7.915256
  H      5.056486    3.520022    7.041575
  C      3.897997    4.971791    5.851062
  H      4.608473    4.799217    5.019175
  H      2.928751    4.511694    5.608002
  N      3.754990    6.394443    6.168972
  H      3.613673    7.037706    5.392559
