15
E = -1190288.13538 kJ/mol
  O      5.883626   -0.055197    1.591131
  O      9.103746   -2.372646    3.864339
  N      7.532988    1.110832    2.669238
  N      7.517008   -1.184632    2.741952
  C      6.891492   -0.045831    2.275886
  C      8.669147   -1.279394    3.528837
  C      9.265846    0.001260    3.888344
  C      8.670147    1.129124    3.442157
  C     10.499755   -0.009471    4.727928
  H      7.107651    1.966193    2.349973
  H      7.081675   -2.059047    2.477907
  H      9.058621    2.112405    3.670533
  H     10.843047    1.004594    4.925339
  H     10.310614   -0.510929    5.676564
  H     11.295107   -0.562386    4.229072
