18
E = -1207013.21385 kJ/mol
  C      4.960018    0.089003    8.297712
  C      3.847205   -0.229668    7.510674
  C      2.561512    0.119417    7.940200
  C      2.389299    0.787955    9.157915
  C      3.501100    1.107143    9.946189
  C      4.786173    0.757429    9.515272
  H      3.980891   -0.746349    6.569608
  H      1.395714    1.057937    9.490098
  H      5.646032    1.003791   10.123869
  C      6.270310   -0.266854    7.859903
  C      7.389949   -0.569742    7.487454
  H      8.366056   -0.833306    7.160432
  C      1.427698   -0.205935    7.137827
  C      0.460518   -0.488594    6.453196
  H     -0.384505   -0.731516    5.856439
  C      3.325087    1.787897   11.187447
  C      3.179606    2.363771   12.251054
  H      3.048848    2.869073   13.176671
