14
E = -807969.22483 kJ/mol
  C      0.645114    2.799905   -1.287219
  C      0.349903    2.833842   -2.657662
  H     -0.577962    2.402005   -3.008910
  C      1.243776    3.417425   -3.549807
  H      1.008327    3.439524   -4.605731
  C      2.437326    3.971561   -3.088507
  H      3.130388    4.424633   -3.785004
  C      2.734775    3.939827   -1.726528
  H      3.659655    4.368469   -1.363530
  C      1.846559    3.358228   -0.827471
  H      2.071277    3.330247    0.230593
  C     -0.268790    2.202694   -0.368248
  C     -1.049867    1.695964    0.417940
  H     -1.731916    1.255170    1.103051
