16
E = -1049582.93425 kJ/mol
  C     15.143892    9.340569    6.105600
  C     14.764370   10.235457    5.082169
  H     13.856405   10.037374    4.500056
  C     15.537860   11.371016    4.807004
  H     15.226938   12.054220    4.010013
  C     16.701812   11.628462    5.551416
  H     17.308564   12.514077    5.339564
  C     17.076988   10.736051    6.568818
  H     17.982056   10.926163    7.154941
  C     16.311778    9.593181    6.857124
  H     16.605080    8.902390    7.647400
  C     14.452326    7.216289    7.258903
  H     13.619564    6.478983    7.160942
  N     14.315629    8.217755    6.324247
  H     13.503206    8.141132    5.719609
  O     15.337680    7.108595    8.092952
