18
E = -1597168.18418 kJ/mol
  O      2.082748   -1.816483    0.003756
  O     -2.057571    1.849175   -0.002047
  O      3.689351    0.282203    0.001120
  O     -3.664161   -0.249515   -0.005230
  C      1.319860    0.480456    0.000251
  C     -1.294669   -0.447757   -0.000857
  C      1.082876   -0.914730    0.001588
  C     -1.057687    0.947431   -0.001606
  C      0.258348    1.392602   -0.001244
  C     -0.233163   -1.359903    0.000873
  C      2.685549    0.995205    0.000217
  C     -2.660358   -0.962509   -0.002372
  H      0.456980    2.458065   -0.001930
  H     -0.431734   -2.425377    0.001624
  H      2.789143    2.091679    0.000293
  H     -2.763946   -2.058982   -0.000395
  H      2.922224   -1.306209    0.004715
  H     -2.897044    1.338899   -0.000778
