33
E = -2298289.69161 kJ/mol
  O     -5.909213   -0.488223    0.318281
  O      5.289848    2.866981   -1.486521
  O      0.251742   -0.962922   -0.369415
  N     -0.407794    0.096548   -0.428004
  N      0.036093    1.301290   -0.640613
  C     -1.843900    0.004644   -0.241053
  C      1.399796    1.503780   -0.833567
  C     -2.650058    1.135621   -0.287353
  C     -2.387576   -1.258377   -0.012941
  C     -4.583109   -0.256390    0.126755
  C     -4.024637    1.004379   -0.102731
  C     -3.755296   -1.383015    0.169869
  C      2.458556    0.575029   -0.837143
  C      1.704788    2.865700   -1.052908
  C      4.047726    2.358374   -1.268273
  C      3.767279    1.008587   -1.053257
  C      2.999851    3.288647   -1.266350
  C     -6.764070    0.646458    0.277680
  C      6.362636    1.934894   -1.494094
  H     -2.204931    2.102313   -0.465408
  H     -1.734599   -2.117620    0.017437
  H     -4.641466    1.889826   -0.140624
  H     -4.205861   -2.350089    0.348598
  H      2.266100   -0.470340   -0.674056
  H      0.886999    3.574371   -1.048898
  H      4.557441    0.272052   -1.049755
  H      3.229691    4.332469   -1.434203
  H     -6.503971    1.361295    1.060536
  H     -7.766307    0.267397    0.448533
  H     -6.718598    1.136757   -0.696510
  H      6.232372    1.194386   -2.285430
  H      6.448812    1.429106   -0.530608
  H      7.258831    2.517057   -1.682418
