78
E = -6049532.04223 kJ/mol
  N     -0.000009   -0.000087    2.040555
  N      2.112071    0.186491   -0.000001
  N     -0.000055   -0.000054   -2.040541
  N     -2.112138   -0.186723   -0.000043
  C      1.087048    0.045032    2.883106
  C      0.684773    0.036314    4.288265
  C     -1.087075   -0.045176    2.883050
  C     -0.684910   -0.035857    4.288230
  C     -2.895460   -0.118647    1.131510
  C     -4.260102   -0.000372    0.691919
  C     -2.895476   -0.118706   -1.131547
  C     -4.260117   -0.000426   -0.691934
  C     -1.087106   -0.045259   -2.883068
  C     -0.684899   -0.036088   -4.288274
  C      1.087009    0.045154   -2.883094
  C      0.684753    0.036254   -4.288293
  C      2.895372    0.118447   -1.131530
  C      4.259997   -0.000052   -0.691954
  C      2.895413    0.118335    1.131535
  C      4.260012   -0.000182    0.691911
  C      2.442480    0.095093    2.471478
  C     -2.442505   -0.095271    2.471407
  C     -2.442519   -0.095418   -2.471480
  C      2.442404    0.095303   -2.471496
  C      3.507829    0.091034    3.510754
  C     -3.507823   -0.091095    3.510717
  C     -3.507843   -0.091399   -3.510794
  C      3.507752    0.091404   -3.510788
  H     -5.118577    0.111613   -1.354710
  H     -5.118549    0.111725    1.354706
  H     -1.351858   -0.089618    5.150440
  H      1.351632    0.090549    5.150505
  H      5.118440   -0.112511    1.354677
  H      5.118410   -0.112269   -1.354757
  H      1.351619    0.090439   -5.150534
  H     -1.351815   -0.090071   -5.150491
  C      3.662530   -1.007146    4.386096
  C      4.406200    1.176502    3.616739
  C      4.690416   -1.025760    5.341701
  C      5.437107    1.168711    4.568953
  H      2.980494   -1.860275    4.302195
  H      4.827096   -1.874308    6.018977
  H      6.136684    2.005059    4.663390
  H      4.287535    2.037621    2.950149
  C     -3.662201    1.007034    4.386169
  C     -4.406403   -1.176385    3.616660
  C     -4.689994    1.025772    5.341872
  C     -5.437238   -1.168459    4.568952
  H     -2.979933    1.859983    4.302344
  H     -4.826408    1.874258    6.019273
  H     -6.137001   -2.004649    4.663346
  H     -4.288013   -2.037437    2.949940
  C     -4.406267   -1.176824   -3.616718
  C     -3.662465    1.006731   -4.386205
  C     -5.437169   -1.169028   -4.568938
  C     -4.690270    1.025298   -5.341903
  H     -4.287708   -2.037867   -2.950015
  H     -6.136821   -2.005318   -4.663293
  H     -4.826836    1.873769   -6.019295
  H     -2.980351    1.859804   -4.302383
  C      4.406086    1.176916   -3.616641
  C      3.662557   -1.006704   -4.386200
  C      5.437083    1.169214   -4.568759
  C      4.690498   -1.025204   -5.341753
  H      4.287358    2.037968   -2.949977
  H      6.136663    2.005574   -4.663055
  H      4.827252   -1.873697   -6.019081
  H      2.980544   -1.859864   -4.302413
  C      5.566750    0.063519   -5.416413
  C      5.566663    0.062954    5.416543
  C     -5.566481   -0.062753    5.416660
  C     -5.566619   -0.063339   -5.416638
  H     -1.091455   -0.264887   -0.000071
  H      1.091395    0.264747    0.000022
  F     -6.562325   -0.044934    6.326458
  F     -6.562521   -0.045657   -6.326376
  F      6.562797    0.045898   -6.325995
  F      6.562595    0.045258    6.326247
