17
E = -801753.02066 kJ/mol
  N      1.435378   -0.761641    1.153803
  C      0.024272   -1.188465    1.092165
  C     -0.814852   -0.000000    0.615524
  C      0.024272    1.188465    1.092165
  N      1.435378    0.761641    1.153803
  C      1.828023   -0.000000   -0.016031
  C      3.283047    0.000000   -0.363109
  H      1.136003    0.000000   -0.855093
  H     -0.258152   -1.484430    2.101998
  H     -0.051968   -2.059472    0.440444
  H     -0.934253   -0.000000   -0.465280
  H     -1.809201    0.000000    1.057401
  H     -0.258152    1.484430    2.101998
  H     -0.051968    2.059472    0.440444
  H      3.865251    0.000000    0.555150
  H      3.535753   -0.885644   -0.946483
  H      3.535753    0.885644   -0.946483
