18
E = -814175.38376 kJ/mol
  C     -0.894311   -2.465626    0.122598
  C     -1.469192   -1.260396   -0.001777
  C     -0.742382    0.008133   -0.013498
  C      0.742286   -0.010192    0.011935
  C      1.469157   -0.398098   -1.195854
  C      0.894349   -0.659395   -2.379011
  C     -1.406632    1.179069   -0.031471
  C      1.406588    0.341054    1.129067
  H     -1.492050   -3.366044    0.139724
  H      0.179608   -2.566382    0.207814
  H     -2.549788   -1.189632   -0.082958
  H      2.549758   -0.452710   -1.103050
  H     -0.179594   -0.610298   -2.501315
  H      1.492083   -0.926422   -3.239089
  H     -0.874974    2.120634   -0.040430
  H     -2.489532    1.200570   -0.041427
  H      2.489499    0.338329    1.152273
  H      0.875129    0.628706    2.025770
