16
E = -1429213.60156 kJ/mol
  F      2.396137    1.761475   -0.000092
  F      0.829549   -2.660121    0.000072
  O     -2.283759    0.828140    0.000070
  C     -0.973314    0.470702    0.000042
  C     -0.724895   -0.905274    0.000072
  C      0.083037    1.383658   -0.000013
  C      1.376621    0.879123   -0.000038
  C      0.586343   -1.335105    0.000044
  C      1.673440   -0.470419   -0.000011
  C     -2.560245    2.222715    0.000056
  H     -1.543624   -1.609314    0.000115
  H     -0.060194    2.452242   -0.000038
  H      2.690058   -0.831682   -0.000032
  H     -2.153593    2.701663    0.892451
  H     -3.641691    2.308957    0.000094
  H     -2.153657    2.701632   -0.892384
