11
E = -3191435.13984 kJ/mol
  C      0.099671   -0.705452   -0.000004
  C     -0.006259    0.676408    0.000001
  C      1.241061    1.339416    0.000001
  C      2.287528    0.453622   -0.000001
  S      1.750127   -1.174753   -0.000010
  H      1.336511    2.413221    0.000008
  H      3.342995    0.671642    0.000004
  Cl    -1.101668   -1.909050    0.000000
  N     -1.248333    1.416587    0.000003
  O     -2.302435    0.781274    0.000019
  O     -1.157487    2.646055   -0.000021
