18
E = -705068.24914 kJ/mol
  N     -0.638975   -0.275686   -0.346755
  N      0.676479    0.296901   -0.355238
  C     -1.572881    0.669613   -0.930591
  C     -1.097828   -0.713994    0.966422
  C      1.659511   -0.770535   -0.384200
  C      0.941531    1.216184    0.745584
  H     -1.209565    0.960713   -1.912443
  H     -1.711969    1.572976   -0.318272
  H     -2.542005    0.181187   -1.031862
  H     -2.017376   -1.281493    0.829905
  H     -1.305816    0.116479    1.655101
  H     -0.359167   -1.372488    1.420715
  H      1.674426   -1.368610    0.539054
  H      2.647312   -0.328060   -0.512610
  H      1.443269   -1.423931   -1.225088
  H      1.016246    0.717392    1.721725
  H      0.162020    1.974774    0.795859
  H      1.887777    1.717156    0.545864
