10
E = -1970374.58040 kJ/mol
  F      2.529519    0.740366    1.004862
  F      2.537363   -1.238349    0.131666
  F      2.517545    0.507232   -1.145289
  F     -2.556870    0.504486   -1.146536
  F     -2.576906   -1.237862    0.134824
  F     -2.568849    0.743051    1.003018
  C      2.052000   -0.000080    0.000133
  C     -2.091400    0.000015    0.000170
  C      0.586219   -0.009370    0.008549
  C     -0.625620   -0.009413    0.008627
