10
E = -1970264.47315 kJ/mol
  F     -1.506646   -0.109462   -0.993063
  F      0.449100    1.717839    0.160196
  F     -1.987673   -2.133994    0.742807
  F     -0.146055   -1.740653    1.831177
  F      2.911320    0.591049    0.058276
  F      2.073957   -1.399354   -0.202466
  C     -0.623819   -0.399014   -0.018245
  C      0.586348    0.384886    0.026401
  C     -0.915204   -1.389259    0.827946
  C      1.819031   -0.122179   -0.043524
