16
E = -1689606.56458 kJ/mol
  F      0.551525   -1.623564    2.663124
  F      0.914920    0.493979    2.787896
  F      2.524617   -0.843548    2.238206
  O      0.969591   -0.490647    0.778241
  C     -0.372976   -0.238442    0.453938
  C     -0.796882    1.077795    0.331626
  C     -1.213780   -1.312543    0.196237
  C     -2.114574    1.321990   -0.049622
  C     -2.529030   -1.054018   -0.184210
  C     -2.979638    0.259509   -0.307425
  C      1.227137   -0.612628    2.099164
  H     -0.103314    1.882367    0.531572
  H     -0.837168   -2.321036    0.293239
  H     -2.461818    2.341681   -0.148363
  H     -3.198223   -1.879205   -0.387541
  H     -4.000533    0.454433   -0.606511
