21
E = -1201268.04409 kJ/mol
  N      0.000007    2.293763    0.000000
  C     -0.000003    3.011862    1.254608
  C     -0.000010    3.011866   -1.254605
  C      0.000004    0.924741   -0.000002
  C      0.000000    0.193573    1.207402
  C      0.000005    0.193577   -1.207408
  C     -0.000001   -1.192838    1.205448
  C      0.000003   -1.192834   -1.205459
  C      0.000000   -1.902409   -0.000007
  C     -0.000001   -3.329768   -0.000002
  N     -0.000002   -4.504009    0.000033
  H      0.000004    4.078590    1.049414
  H      0.885854    2.779057    1.852359
  H     -0.885872    2.779064    1.852345
  H     -0.000020    4.078593   -1.049408
  H      0.885850    2.779076   -1.852357
  H     -0.885875    2.779057   -1.852344
  H     -0.000001    0.707405    2.157446
  H      0.000008    0.707411   -2.157450
  H     -0.000004   -1.731210    2.144199
  H      0.000005   -1.731202   -2.144212
