12
E = -900628.58353 kJ/mol
  O      0.349598    0.613986   -1.811753
  O      0.136172    2.843747   -0.151707
  O     -1.222902   -1.432833   -1.159483
  C      0.045116    0.450290   -0.445780
  C     -0.667581    1.701379    0.060268
  C     -0.816204   -0.762166   -0.228319
  H      0.972038    0.327771    0.126342
  H     -0.846992    1.633998    1.133215
  H     -1.629464    1.791470   -0.455958
  H     -1.078065   -1.007436    0.813041
  H     -0.136660   -0.086486   -2.277275
  H      0.379924    2.831179   -1.086412
