17
E = -2843617.26444 kJ/mol
  S      1.709555    0.804189   -0.036925
  F      2.099270    0.489250   -1.536722
  O      2.101141    2.168956    0.185015
  O      2.196503   -0.280701    0.765473
  O      0.698574   -1.937980   -1.020144
  O     -0.537123   -2.599214    0.669627
  N     -0.144944   -1.764686   -0.143908
  C     -0.057123    0.736613   -0.153271
  C     -0.787497   -0.450991   -0.097887
  C     -0.733615    1.957010   -0.152717
  C     -2.174597   -0.433129   -0.037430
  C     -2.124668    1.979012   -0.124281
  C     -2.843452    0.786514   -0.061513
  H     -0.155391    2.870413   -0.156578
  H     -2.704974   -1.373508    0.020766
  H     -2.643586    2.927460   -0.134595
  H     -3.924191    0.803080   -0.028163
